Circuit: * C:\Users\Acer\Desktop\IC\Dflipflop\FF.asc

Ignoring BSIM parameter XL
Ignoring BSIM parameter XW
Ignoring BSIM parameter XL
Ignoring BSIM parameter XW
Warning: Pd = 0 is less than W.
Warning: Ps = 0 is less than W.
Warning: Pd = 0 is less than W.
Warning: Ps = 0 is less than W.
Direct Newton iteration for .op point succeeded.

Date: Mon Mar 25 22:10:14 2024
Total elapsed time: 0.116 seconds.

tnom = 27
temp = 27
method = modified trap
totiter = 6955
traniter = 6942
tranpoints = 2644
accept = 2323
rejected = 321
matrix size = 15
fillins = 0
solver = Normal
Avg thread counts: 3.1/3.3/2.0/1.4
Matrix Compiler1: 1.18 KB object code size  0.4/0.2/[0.1]
Matrix Compiler2: 1.48 KB object code size  0.2/0.2/[0.2]

