Circuit: * C:\Users\Acer\Desktop\IC\CongNAND3\NAND3sim.asc

Ignoring BSIM parameter XL
Ignoring BSIM parameter XW
Ignoring BSIM parameter XL
Ignoring BSIM parameter XW
Warning: Pd = 0 is less than W.
Warning: Ps = 0 is less than W.
Warning: Pd = 0 is less than W.
Warning: Ps = 0 is less than W.
Direct Newton iteration for .op point succeeded.

Date: Fri Mar 29 16:16:22 2024
Total elapsed time: 0.106 seconds.

tnom = 27
temp = 27
method = modified trap
totiter = 8059
traniter = 8030
tranpoints = 3602
accept = 3276
rejected = 326
matrix size = 11
fillins = 0
solver = Normal
Avg thread counts: 1.3/1.7/1.8/1.3
Matrix Compiler1: 468 bytes object code size  0.2/0.1/[0.1]
Matrix Compiler2: off  [0.1]/0.2/0.2

