Circuit: * C:\Users\Acer\Desktop\IC\inv\inv.asc

Ignoring BSIM parameter XL
Ignoring BSIM parameter XW
Ignoring BSIM parameter XL
Ignoring BSIM parameter XW
Fatal Error: No analysis request found.
