Circuit: * C:\Users\Acer\Desktop\IC\bocong\bocongsim.asc

Ignoring BSIM parameter XL
Ignoring BSIM parameter XW
Ignoring BSIM parameter XL
Ignoring BSIM parameter XW
Warning: Pd = 0 is less than W.
Warning: Ps = 0 is less than W.
Warning: Pd = 0 is less than W.
Warning: Ps = 0 is less than W.
Direct Newton iteration for .op point succeeded.

Date: Fri Mar 29 16:45:52 2024
Total elapsed time: 0.183 seconds.

tnom = 27
temp = 27
method = modified trap
totiter = 11263
traniter = 11237
tranpoints = 4209
accept = 3605
rejected = 604
matrix size = 16
fillins = 2
solver = Normal
Avg thread counts: 2.2/2.4/1.7/1.2
Matrix Compiler1: 1.41 KB object code size  0.4/0.3/[0.2]
Matrix Compiler2: 1.70 KB object code size  0.3/0.5/[0.2]

