Circuit: * C:\Users\Acer\Desktop\IC\machtt\machtt.asc

Ignoring BSIM parameter XL
Ignoring BSIM parameter XW
Ignoring BSIM parameter XL
Ignoring BSIM parameter XW
WARNING: Node N005 is floating.
WARNING: Node N006 is floating.
WARNING: Node N007 is floating.

WARNING: Less than two connections to node n005.  This node is used by m8.
WARNING: Less than two connections to node n006.  This node is used by m5.
WARNING: Less than two connections to node n007.  This node is used by m7.
Warning: Pd = 0 is less than W.
Warning: Ps = 0 is less than W.
Warning: Pd = 0 is less than W.
Warning: Ps = 0 is less than W.
Warning: Pd = 0 is less than W.
Warning: Ps = 0 is less than W.
Warning: Pd = 0 is less than W.
Warning: Ps = 0 is less than W.
Warning: Pd = 0 is less than W.
Warning: Ps = 0 is less than W.
Direct Newton iteration for .op point succeeded.
.step l=2e-07
.step l=3e-07
.step l=4e-07
.step l=5e-07
.step l=6e-07
.step l=7e-07
.step l=8e-07
.step l=9e-07
.step l=1e-06

Date: Mon Apr  1 11:02:04 2024
Total elapsed time: 0.697 seconds.

tnom = 27
temp = 27
method = modified trap
totiter = 4277
traniter = 4249
tranpoints = 1748
accept = 1357
rejected = 391
matrix size = 14
fillins = 9
solver = Normal
Avg thread counts: 1.6/2.6/2.6/1.6
Matrix Compiler1: 1.53 KB object code size  0.4/0.2/[0.2]
Matrix Compiler2: off  [0.2]/0.4/0.3

