Circuit: * C:\Users\Acer\Desktop\IC\CongNAND\NANDsim.asc

Ignoring BSIM parameter XL
Ignoring BSIM parameter XW
Ignoring BSIM parameter XL
Ignoring BSIM parameter XW
Warning: Pd = 0 is less than W.
Warning: Ps = 0 is less than W.
Warning: Pd = 0 is less than W.
Warning: Ps = 0 is less than W.
Direct Newton iteration for .op point succeeded.

Date: Fri Mar 29 15:58:44 2024
Total elapsed time: 0.081 seconds.

tnom = 27
temp = 27
method = modified trap
totiter = 5597
traniter = 5584
tranpoints = 2271
accept = 1951
rejected = 320
matrix size = 8
fillins = 0
solver = Normal
Avg thread counts: 1.5/2.2/2.2/1.5
Matrix Compiler1:      16 opcodes  0.1/[0.1]/0.1
Matrix Compiler2: off  [0.1]/0.1/0.1

